
**** 11/09/15 14:10:55 ****** PSpice Lite (October 2012) ****** ID# 10813 ****

 *ujt relaxation


 ****     CIRCUIT DESCRIPTION


******************************************************************************



x1 b2 e b2 2N2646
.lib nom.lib 
c e 0 0.1u IC=1
r p e 10k
rb2 p b2 1k
rb1 b1 0 5 
vp p 0 dc 10 
.tran 0.01m 4m 0 0.01m UIC
.probe 
.end

ERROR(ORPSIM-15141): Less than 2 connections at node b1.

ERROR(ORPSIM-15143): Voltage source and/or inductor loop involving x1.x1.x1.x1.x1.xrb1.eout. You may break the loop by adding a series resistance
